SECOND
ORDER
THEORY
FOR
UNSTEADY
SUPERSONIC
FLOW
PAST
SLENDER
POINTED
BODIES
OF
REVOLUTION
THE
THERMODYNAMIC
PROPERTIES
Z
PV
RT
E
RT
H
RT
S
R
AND
PRESSURE
ARE
GIVEN
FOR
EQUILIBRIUM
MIXTURES
OF
DISSOCIATED
AND
IONIZED
MOLECULES
AND
ATOMS
OF
THE
ELEMENTS
NITROGEN
AND
OXYGEN
HAVING
THE
LOW
TEMPERATURE
COMPOSITION
OF
78847
N
AND
21153
O
THE
TABULATED
PROPERTIES
OF
THIS
MIXTURE
A
CLOSE
APPROXIMATION
TO
THE
PROPERTIES
OF
AIR
ARE
GIVEN
AT
CLOSE
INTERVALS
FROM
2000
TO
AND
10
TIMES
THE
NORMAL
DENSITY
THE
RESULTS
ARE
BASED
ON
CHEMICAL
EQUILIBRIA
BETWEEN
THE
SPECIES
O
O
N
N
NO
NO
NO
NO
O
O
O
O
N
N
N
AND
ELECTRONS
THE
METHOD
OF
PRESENTATION
PERMITS
LATER
CORRECTIONS
FOR
THE
EFFECT
OF
ARGON
AND
CO
AND
THE
CONTRIBUTION
OF
INTERMOLECULAR
FORCES
THE
CALCULATIONS
ARE
BASED
ON
9758
EV
AS
THE
DISSOCIATION
ENERGY
OF
MOLECULAR
NITROGEN
AND
145
EV
AS
THE
ELECTRON
AFFINITY
OF
ATOMIC
OXYGEN
